Circuit: * Z:\home\ami\repos\bicycleindicator\ltspice\LEDdriverckt.asc

Direct Newton iteration for .op point succeeded.

Date: Mon Oct 19 00:42:31 2020
Total elapsed time: 0.398 seconds.

tnom = 27
temp = 27
method = modified trap
totiter = 25263
traniter = 25255
tranpoints = 11066
accept = 10817
rejected = 249
matrix size = 14
fillins = 0
solver = Normal
Matrix Compiler1:      24 opcodes  0.5/[0.4]/0.7
Matrix Compiler2: 776 bytes object code size  0.4/0.4/[0.4]

