Circuit: * Z:\home\ami\repos\bicycleindicator\ltspice\LEDdriverckt.asc

Direct Newton iteration for .op point succeeded.

Date: Sat Oct 17 21:48:33 2020
Total elapsed time: 0.872 seconds.

tnom = 27
temp = 27
method = modified trap
totiter = 2487
traniter = 2479
tranpoints = 1102
accept = 1084
rejected = 18
matrix size = 14
fillins = 0
solver = Normal
Matrix Compiler1: 384 bytes object code size  0.7/0.4/[0.4]
Matrix Compiler2: 776 bytes object code size  0.4/0.5/[0.4]

